6BOY-prep.E
  MOE2019           3D

 29 31  0  0  1  0  0  0  0  0999 V2000
   68.8860   42.3780   49.2220 C   0  0  0  0  0  0  0  0  0  0  0  0
   68.7679   41.6801   48.4063 H   0  0  0  0  0  0  0  0  0  0  0  0
   69.1930   41.9450   50.5320 C   0  0  0  0  0  0  0  0  0  0  0  0
   69.3480   42.8720   51.5920 C   0  0  0  0  0  0  0  0  0  0  0  0
   69.2080   44.2570   51.3770 C   0  0  0  0  0  0  0  0  0  0  0  0
   68.8920   44.6610   50.0750 C   0  0  0  0  0  0  0  0  0  0  0  0
   68.5510   46.0140   49.5870 C   0  0  0  0  0  0  0  0  0  0  0  0
   67.6710   46.9370   47.4080 C   0  0  3  0  0  0  0  0  0  0  0  0
   68.3330   48.3310   47.5510 C   0  0  0  0  0  0  0  0  0  0  0  0
   66.2970   49.4700   46.9830 C   0  0  0  0  0  0  0  0  0  0  0  0
   65.5350   48.1560   46.7820 C   0  0  0  0  0  0  0  0  0  0  0  0
   66.1540   47.0410   47.6270 C   0  0  0  0  0  0  0  0  0  0  0  0
   68.7410   43.7760   49.0340 C   0  0  0  0  0  0  0  0  0  0  0  0
   68.3050   44.5760   47.8580 C   0  0  0  0  0  0  0  0  0  0  0  0
   68.2280   45.8730   48.2710 N   0  0  0  0  0  0  0  0  0  0  0  0
   67.5860   49.4330   47.3640 N   0  0  0  0  0  0  0  0  0  0  0  0
   65.7290   50.5350   46.7660 O   0  0  0  0  0  0  0  0  0  0  0  0
   69.5310   48.4280   47.8030 O   0  0  0  0  0  0  0  0  0  0  0  0
   68.5450   47.0260   50.2850 O   0  0  0  0  0  0  0  0  0  0  0  0
   68.0340   44.1190   46.7480 O   0  0  0  0  0  0  0  0  0  0  0  0
   69.2800   40.8890   50.7350 H   0  0  0  0  0  0  0  0  0  0  0  0
   69.5410   42.5200   52.5880 H   0  0  0  0  0  0  0  0  0  0  0  0
   69.2960   44.9670   52.1870 H   0  0  0  0  0  0  0  0  0  0  0  0
   67.8390   46.6580   46.3660 H   0  0  0  0  0  0  0  0  0  0  0  0
   65.5710   47.8890   45.7260 H   0  0  0  0  0  0  0  0  0  0  0  0
   64.4840   48.2900   47.0360 H   0  0  0  0  0  0  0  0  0  0  0  0
   65.9500   47.2250   48.6800 H   0  0  0  0  0  0  0  0  0  0  0  0
   65.6780   46.0950   47.3950 H   0  0  0  0  0  0  0  0  0  0  0  0
   68.0600   50.3200   47.4780 H   0  0  0  0  0  0  0  0  0  0  0  0
  1  2  1  0  0  0  0
  1  3  1  0  0  0  0
  1 13  2  0  0  0  0
  3  4  2  0  0  0  0
  3 21  1  0  0  0  0
  4  5  1  0  0  0  0
  4 22  1  0  0  0  0
  5  6  2  0  0  0  0
  5 23  1  0  0  0  0
  6  7  1  0  0  0  0
  6 13  1  0  0  0  0
  7 15  1  0  0  0  0
  7 19  2  0  0  0  0
  8  9  1  0  0  0  0
  8 12  1  0  0  0  0
  8 15  1  0  0  0  0
  8 24  1  0  0  0  0
  9 16  1  0  0  0  0
  9 18  2  0  0  0  0
 10 11  1  0  0  0  0
 10 16  1  0  0  0  0
 10 17  2  0  0  0  0
 11 12  1  0  0  0  0
 11 25  1  0  0  0  0
 11 26  1  0  0  0  0
 12 27  1  0  0  0  0
 12 28  1  0  0  0  0
 13 14  1  0  0  0  0
 14 15  1  0  0  0  0
 14 20  2  0  0  0  0
 16 29  1  0  0  0  0
M  END
$$$$
