6BOY-prep.E
  MOE2019           3D

 38 41  0  0  0  0  0  0  0  0999 V2000
   76.6460   32.7120   57.4550 N   0  0  0  0  0  0  0  0  0  0  0  0
   75.3190   34.5230   58.5500 C   0  0  0  0  0  0  0  0  0  0  0  0
   75.6230   33.5750   57.4340 C   0  0  0  0  0  0  0  0  0  0  0  0
   75.5630   32.5790   55.5940 C   0  0  0  0  0  0  0  0  0  0  0  0
   74.7070   34.5430   53.5110 C   0  0  0  0  0  0  0  0  0  0  0  0
   75.1300   32.2840   54.1810 C   0  0  0  0  0  0  0  0  0  0  0  0
   75.0880   35.7050   52.6480 C   0  0  0  0  0  0  0  0  0  0  0  0
   74.6940   37.0220   52.9810 C   0  0  0  0  0  0  0  0  0  0  0  0
   75.0840   38.1150   52.1850 C   0  0  0  0  0  0  0  0  0  0  0  0
   75.8950   37.9100   51.0540 C   0  0  0  0  0  0  0  0  0  0  0  0
   76.3130   36.6100   50.7200 C   0  0  0  0  0  0  0  0  0  0  0  0
   75.9050   35.5150   51.5040 C   0  0  0  0  0  0  0  0  0  0  0  0
   73.6230   34.6550   54.5450 C   0  0  0  0  0  0  0  0  0  0  0  0
   73.7720   34.2450   55.8560 C   0  0  0  0  0  0  0  0  0  0  0  0
   71.5320   35.2250   55.3980 C   0  0  0  0  0  0  0  0  0  0  0  0
   70.1490   35.7660   55.5120 C   0  0  0  0  0  0  0  0  0  0  0  0
   72.3030   35.1490   54.2620 C   0  0  0  0  0  0  0  0  0  0  0  0
   71.7860   35.5310   52.9020 C   0  0  0  0  0  0  0  0  0  0  0  0
   76.6080   32.0550   56.2400 N   0  0  0  0  0  0  0  0  0  0  0  0
   75.3810   33.4670   53.3690 N   0  0  0  0  0  0  0  0  0  0  0  0
   74.9100   33.5250   56.2930 N   0  0  0  0  0  0  0  0  0  0  0  0
   72.3540   34.5850   56.7990 S   0  0  0  0  0  0  0  0  0  0  0  0
   76.3640   39.2430   50.0660 Cl  0  0  0  0  0  0  0  0  0  0  0  0
   74.9560   35.4740   58.1620 H   0  0  0  0  0  0  0  0  0  0  0  0
   74.5630   34.0970   59.2090 H   0  0  0  0  0  0  0  0  0  0  0  0
   76.2190   34.7180   59.1340 H   0  0  0  0  0  0  0  0  0  0  0  0
   74.0600   32.0620   54.2140 H   0  0  0  0  0  0  0  0  0  0  0  0
   75.6730   31.4420   53.7517 H   0  0  0  0  0  0  0  0  0  0  0  0
   74.0910   37.2140   53.8550 H   0  0  0  0  0  0  0  0  0  0  0  0
   74.7640   39.1130   52.4450 H   0  0  0  0  0  0  0  0  0  0  0  0
   76.9370   36.4490   49.8530 H   0  0  0  0  0  0  0  0  0  0  0  0
   76.2400   34.5290   51.2160 H   0  0  0  0  0  0  0  0  0  0  0  0
   69.8130   35.7960   56.5440 H   0  0  0  0  0  0  0  0  0  0  0  0
   70.1180   36.7870   55.1410 H   0  0  0  0  0  0  0  0  0  0  0  0
   69.4410   35.1670   54.9390 H   0  0  0  0  0  0  0  0  0  0  0  0
   70.7000   35.4600   52.8440 H   0  0  0  0  0  0  0  0  0  0  0  0
   72.0520   36.5540   52.6400 H   0  0  0  0  0  0  0  0  0  0  0  0
   72.1770   34.8680   52.1320 H   0  0  0  0  0  0  0  0  0  0  0  0
  1  3  2  0  0  0  0
  1 19  1  0  0  0  0
  2  3  1  0  0  0  0
  2 24  1  0  0  0  0
  2 25  1  0  0  0  0
  2 26  1  0  0  0  0
  3 21  1  0  0  0  0
  4  6  1  0  0  0  0
  4 19  2  0  0  0  0
  4 21  1  0  0  0  0
  5  7  1  0  0  0  0
  5 13  1  0  0  0  0
  5 20  2  0  0  0  0
  6 20  1  0  0  0  0
  6 27  1  0  0  0  0
  6 28  1  0  0  0  0
  7  8  1  0  0  0  0
  7 12  2  0  0  0  0
  8  9  2  0  0  0  0
  8 29  1  0  0  0  0
  9 10  1  0  0  0  0
  9 30  1  0  0  0  0
 10 11  2  0  0  0  0
 10 23  1  0  0  0  0
 11 12  1  0  0  0  0
 11 31  1  0  0  0  0
 12 32  1  0  0  0  0
 13 14  2  0  0  0  0
 13 17  1  0  0  0  0
 14 21  1  0  0  0  0
 14 22  1  0  0  0  0
 15 16  1  0  0  0  0
 15 17  2  0  0  0  0
 15 22  1  0  0  0  0
 16 33  1  0  0  0  0
 16 34  1  0  0  0  0
 16 35  1  0  0  0  0
 17 18  1  0  0  0  0
 18 36  1  0  0  0  0
 18 37  1  0  0  0  0
 18 38  1  0  0  0  0
M  END
$$$$
